MVA-12.sdf
  ChemDraw02192309013D

 27 28  0  0  1  0  0  0  0  0999 V2000
   -4.0288   -2.4748   -1.6850 O   0  5  0  0  0  0  0  0  0  0  0  0
   -2.8907   -2.6257   -0.6750 C   0  0  0  0  0  0  0  0  0  0  0  0
   -1.4699   -1.8460   -0.9194 C   0  0  0  0  0  0  0  0  0  0  0  0
   -1.1600   -0.8343    0.3681 C   0  0  0  0  0  0  0  0  0  0  0  0
   -3.0621   -3.4385    0.4641 O   0  0  0  0  0  0  0  0  0  0  0  0
    0.3546   -0.1611    0.1961 C   0  0  0  0  0  0  0  0  0  0  0  0
   -1.2179   -1.6485    1.6936 O   0  0  0  0  0  0  0  0  0  0  0  0
    0.3659    0.7986   -1.1661 C   0  0  0  0  0  0  0  0  0  0  0  0
    1.7509    1.4967   -1.2975 O   0  0  0  0  0  0  0  0  0  0  0  0
   -2.2647    0.3760    0.4185 C   0  0  0  0  0  0  0  0  0  0  0  0
   -6.2960    4.0561   -0.5246 C   0  0  0  0  0  0  0  0  0  0  0  0
   -6.3415    3.0487   -1.6595 C   0  0  0  0  0  0  0  0  0  0  0  0
   -5.3505    1.8988   -1.6936 C   0  0  0  0  0  0  0  0  0  0  0  0
   -4.3143    1.7521   -0.5933 C   0  0  0  0  0  0  0  0  0  0  0  0
   -4.2697    2.7618    0.5399 C   0  0  0  0  0  0  0  0  0  0  0  0
   -5.2610    3.9111    0.5764 C   0  0  0  0  0  0  0  0  0  0  0  0
   -3.2650    0.5333   -0.6380 C   0  0  0  0  0  0  0  0  0  0  0  0
   -7.2881    5.2148   -0.4897 O   0  0  0  0  0  0  0  0  0  0  0  0
    1.4876   -1.3364    0.0502 C   0  0  0  0  0  0  0  0  0  0  0  0
    6.2010   -4.1673   -0.7137 C   0  0  0  0  0  0  0  0  0  0  0  0
    6.5676   -2.6964   -0.6340 C   0  0  0  0  0  0  0  0  0  0  0  0
    5.4829   -1.6542   -0.4299 C   0  0  0  0  0  0  0  0  0  0  0  0
    4.0320   -2.0830   -0.3053 C   0  0  0  0  0  0  0  0  0  0  0  0
    3.6665   -3.5549   -0.3748 C   0  0  0  0  0  0  0  0  0  0  0  0
    4.7518   -4.5972   -0.5752 C   0  0  0  0  0  0  0  0  0  0  0  0
    2.8930   -0.9644   -0.1111 C   0  0  0  0  0  0  0  0  0  0  0  0
    7.2881   -5.2148   -0.9359 O   0  0  0  0  0  0  0  0  0  0  0  0
  1  2  1  0        0
  2  3  1  0        0
  3  4  1  0        0
  2  5  2  0        0
  4  6  1  0        0
  4  7  1  0        0
  6  8  1  0        0
  8  9  1  0        0
  4 10  1  0        0
 11 12  2  0        0
 12 13  1  0        0
 13 14  2  0        0
 14 15  1  0        0
 15 16  2  0        0
 16 11  1  0        0
 10 17  2  0        0
 17 14  1  0        0
 11 18  1  0        0
 20 21  2  0        0
 21 22  1  0        0
 22 23  2  0        0
 23 24  1  0        0
 24 25  2  0        0
 25 20  1  0        0
 19 26  2  0        0
 26 23  1  0        0
 20 27  1  0        0
  6 19  1  0        0
M  CHG  1   1  -1
M  END
$$$$
