MVA-13.sdf
  ChemDraw02192309023D

 27 28  0  0  1  0  0  0  0  0999 V2000
   -0.6962   -1.0676   -1.8849 O   0  5  0  0  0  0  0  0  0  0  0  0
   -1.3635   -0.7500   -0.5456 C   0  0  0  0  0  0  0  0  0  0  0  0
   -0.4680   -0.6736    0.8258 C   0  0  0  0  0  0  0  0  0  0  0  0
    0.4972    0.6866    0.8280 C   0  0  0  0  0  0  0  0  0  0  0  0
   -2.7552   -0.5305   -0.4879 O   0  0  0  0  0  0  0  0  0  0  0  0
    1.3652    0.8095   -0.5894 C   0  0  0  0  0  0  0  0  0  0  0  0
    1.4904    0.6047    2.0242 O   0  0  0  0  0  0  0  0  0  0  0  0
    1.9458    2.3651   -0.7305 C   0  0  0  0  0  0  0  0  0  0  0  0
    2.8037    2.4835   -2.0242 O   0  0  0  0  0  0  0  0  0  0  0  0
   -0.4293    2.0279    1.0023 C   0  0  0  0  0  0  0  0  0  0  0  0
   -4.1053    6.1473    0.5397 C   0  0  0  0  0  0  0  0  0  0  0  0
   -4.3754    5.1780   -0.5974 C   0  0  0  0  0  0  0  0  0  0  0  0
   -3.4957    3.9528   -0.7718 C   0  0  0  0  0  0  0  0  0  0  0  0
   -2.3514    3.6883    0.1904 C   0  0  0  0  0  0  0  0  0  0  0  0
   -2.0756    4.6665    1.3186 C   0  0  0  0  0  0  0  0  0  0  0  0
   -2.9494    5.8960    1.4918 C   0  0  0  0  0  0  0  0  0  0  0  0
   -1.4465    2.3707    0.0082 C   0  0  0  0  0  0  0  0  0  0  0  0
   -4.9974    7.3710    0.7272 O   0  0  0  0  0  0  0  0  0  0  0  0
    0.4494   -2.0251    0.9688 C   0  0  0  0  0  0  0  0  0  0  0  0
    4.1094   -6.1395    0.4034 C   0  0  0  0  0  0  0  0  0  0  0  0
    4.3927   -5.1320   -0.6968 C   0  0  0  0  0  0  0  0  0  0  0  0
    3.5092   -3.9065   -0.8480 C   0  0  0  0  0  0  0  0  0  0  0  0
    2.3467   -3.6839    0.1026 C   0  0  0  0  0  0  0  0  0  0  0  0
    2.0650   -4.6899    1.2043 C   0  0  0  0  0  0  0  0  0  0  0  0
    2.9429   -5.9201    1.3505 C   0  0  0  0  0  0  0  0  0  0  0  0
    1.4241   -2.3771   -0.0638 C   0  0  0  0  0  0  0  0  0  0  0  0
    4.9974   -7.3710    0.5570 O   0  0  0  0  0  0  0  0  0  0  0  0
  1  2  1  0        0
  2  3  1  0        0
  3  4  1  0        0
  2  5  2  0        0
  4  6  1  0        0
  4  7  1  0        0
  6  8  1  0        0
  8  9  1  0        0
  4 10  1  0        0
 11 12  2  0        0
 12 13  1  0        0
 13 14  2  0        0
 14 15  1  0        0
 15 16  2  0        0
 16 11  1  0        0
 10 17  2  0        0
 17 14  1  0        0
 11 18  1  0        0
 20 21  2  0        0
 21 22  1  0        0
 22 23  2  0        0
 23 24  1  0        0
 24 25  2  0        0
 25 20  1  0        0
 19 26  2  0        0
 26 23  1  0        0
 20 27  1  0        0
  3 19  1  0        0
M  CHG  1   1  -1
M  END
$$$$
