MVA-3.sdf
  ChemDraw01252323353D

 11 10  0  0  1  0  0  0  0  0999 V2000
   -3.3891   -1.5198    0.7336 O   0  5  0  0  0  0  0  0  0  0  0  0
   -2.8626   -0.7307   -0.4211 C   0  0  0  0  0  0  0  0  0  0  0  0
   -1.5075   -1.1840   -1.1411 C   0  0  0  0  0  0  0  0  0  0  0  0
   -0.2920   -0.8052   -0.1378 C   0  0  0  0  0  0  0  0  0  0  0  0
   -3.5494    0.3464   -0.9325 O   0  0  0  0  0  0  0  0  0  0  0  0
   -0.1661    0.7445    0.2123 C   0  0  0  0  0  0  0  0  0  0  0  0
    1.0990   -1.2375   -0.8479 C   0  0  0  0  0  0  0  0  0  0  0  0
   -0.4054   -1.6183    1.1411 O   0  0  0  0  0  0  0  0  0  0  0  0
    2.3681   -0.6421   -0.0231 C   0  0  0  0  0  0  0  0  0  0  0  0
    3.5494   -1.5744   -0.2543 O   0  0  0  0  0  0  0  0  0  0  0  0
   -0.1221    1.6183   -0.9076 C   0  0  0  0  0  0  0  0  0  0  0  0
  1  2  1  0        0
  2  3  1  0        0
  3  4  1  0        0
  2  5  2  0        0
  4  6  1  0        0
  4  7  1  0        0
  4  8  1  0        0
  7  9  1  0        0
  9 10  1  0        0
  6 11  2  0        0
M  CHG  1   1  -1
M  STY  1   1 DAT
M  SLB  1   1   1
M  SAL   1 11   1   2   3   4   5   6   7   8   9  10  11
M  SBL   1 10   1   2   3   4   5   6   7   8   9  10
M  SDD   1    -5.1961   -2.9056    DA    ALL  1       5
M  SED   1 3-hydroxy-3-(2-hydroxyethyl)pent-4-enoate
M  END
$$$$
