MVA-9.sdf
  ChemDraw01262300303D

 16 16  0  0  1  0  0  0  0  0999 V2000
   -3.5761   -3.6617    1.0425 O   0  5  0  0  0  0  0  0  0  0  0  0
   -2.9608   -3.2158   -0.3041 C   0  0  0  0  0  0  0  0  0  0  0  0
   -1.3649   -3.5166   -0.6366 C   0  0  0  0  0  0  0  0  0  0  0  0
   -0.3859   -2.3643    0.1096 C   0  0  0  0  0  0  0  0  0  0  0  0
   -3.7675   -2.5362   -1.2639 O   0  0  0  0  0  0  0  0  0  0  0  0
    1.2051   -2.6412   -0.3722 C   0  0  0  0  0  0  0  0  0  0  0  0
   -0.5036   -2.5122    1.6726 O   0  0  0  0  0  0  0  0  0  0  0  0
    2.3110   -1.9565    0.7005 C   0  0  0  0  0  0  0  0  0  0  0  0
    3.7675   -2.2907    0.2044 O   0  0  0  0  0  0  0  0  0  0  0  0
   -0.8001   -0.8581   -0.3216 N   0  0  0  0  0  0  0  0  0  0  0  0
   -0.6442   -0.2902   -1.6708 N   0  0  0  0  0  0  0  0  0  0  0  0
   -1.0216    1.1336   -1.6726 N   0  0  0  0  0  0  0  0  0  0  0  0
   -1.4306    1.4748   -0.2663 C   0  0  0  0  0  0  0  0  0  0  0  0
   -1.3279    0.2089    0.5961 C   0  0  0  0  0  0  0  0  0  0  0  0
   -1.9195    2.9809    0.2134 C   0  0  0  0  0  0  0  0  0  0  0  0
   -0.8066    3.6617    1.2792 C   0  0  0  0  0  0  0  0  0  0  0  0
  1  2  1  0        0
  2  3  1  0        0
  3  4  1  0        0
  2  5  2  0        0
  4  6  1  0        0
  4  7  1  0        0
  6  8  1  0        0
  8  9  1  0        0
  4 10  1  0        0
 10 11  1  0        0
 11 12  2  0        0
 12 13  1  0        0
 13 14  2  0        0
 14 10  1  0        0
 13 15  1  0        0
 15 16  1  0        0
M  CHG  1   1  -1
M  END
$$$$
