10.sdf
  ChemDraw03242316163D

 15 14  0  0  1  0  0  0  0  0999 V2000
   -2.6496    1.9791    0.0958 C   0  0  0  0  0  0  0  0  0  0  0  0
   -1.3235    1.2274    0.2973 C   0  0  0  0  0  0  0  0  0  0  0  0
   -0.1828    2.2870    0.1440 C   0  0  0  0  0  0  0  0  0  0  0  0
    1.1334    1.7309    0.7771 C   0  0  0  0  0  0  0  0  0  0  0  0
    2.0342    2.9308    1.2151 C   0  0  0  0  0  0  0  0  0  0  0  0
    3.3831    2.4670    1.5303 O   0  0  0  0  0  0  0  0  0  0  0  0
   -0.5921    3.4926    0.8612 O   0  0  0  0  0  0  0  0  0  0  0  0
    0.0960    2.7083   -1.3364 C   0  0  0  0  0  0  0  0  0  0  0  0
   -3.3831    2.3579    1.1297 O   0  0  0  0  0  0  0  0  0  0  0  0
   -3.0825    2.2976   -1.2357 O   0  5  0  0  0  0  0  0  0  0  0  0
   -1.2660    0.0590   -0.7435 C   0  0  0  0  0  0  0  0  0  0  0  0
   -0.1281   -0.9784   -0.4639 C   0  0  0  0  0  0  0  0  0  0  0  0
   -0.7301   -2.4156   -0.6063 C   0  0  0  0  0  0  0  0  0  0  0  0
    1.0046   -0.8205   -1.5303 C   0  0  0  0  0  0  0  0  0  0  0  0
    0.4049   -3.4926   -0.6138 C   0  0  0  0  0  0  0  0  0  0  0  0
  1  2  1  0        0
  2  3  1  0        0
  3  4  1  0        0
  4  5  1  0        0
  5  6  1  0        0
  3  7  1  0        0
  3  8  1  0        0
  1  9  2  0        0
  1 10  1  0        0
  2 11  1  0        0
 11 12  1  0        0
 12 13  1  0        0
 12 14  1  0        0
 13 15  1  0        0
M  CHG  1  10  -1
M  END
$$$$
