11.sdf
  ChemDraw03242316173D

 11 10  0  0  1  0  0  0  0  0999 V2000
   -2.9313    0.4471    0.6553 C   0  0  0  0  0  0  0  0  0  0  0  0
   -1.5171   -0.4265    0.8676 C   0  0  0  0  0  0  0  0  0  0  0  0
   -0.2196    0.3795    0.1135 C   0  0  0  0  0  0  0  0  0  0  0  0
    1.1934   -0.4834    0.5144 C   0  0  0  0  0  0  0  0  0  0  0  0
    2.5888    0.3174   -0.0451 C   0  0  0  0  0  0  0  0  0  0  0  0
    3.8777   -0.4597    0.4728 O   0  0  0  0  0  0  0  0  0  0  0  0
   -0.1340    1.8789    0.6424 O   0  0  0  0  0  0  0  0  0  0  0  0
   -0.4454    0.3653   -1.5763 C   0  0  0  0  0  0  0  0  0  0  0  0
   -3.2823    1.4997    1.5763 O   0  0  0  0  0  0  0  0  0  0  0  0
   -3.8777    0.1121   -0.5435 O   0  5  0  0  0  0  0  0  0  0  0  0
   -1.6744   -1.8789    0.2095 F   0  0  0  0  0  0  0  0  0  0  0  0
  1  2  1  0        0
  2  3  1  0        0
  3  4  1  0        0
  4  5  1  0        0
  5  6  1  0        0
  3  7  1  0        0
  3  8  1  0        0
  1  9  2  0        0
  1 10  1  0        0
  2 11  1  0        0
M  CHG  1  10  -1
M  END
$$$$
