13.sdf
  ChemDraw03242316173D

 12 11  0  0  1  0  0  0  0  0999 V2000
   -3.0030    1.2445    0.5873 C   0  0  0  0  0  0  0  0  0  0  0  0
   -1.7081    0.2145    0.7645 C   0  0  0  0  0  0  0  0  0  0  0  0
   -0.4067    0.8365   -0.1210 C   0  0  0  0  0  0  0  0  0  0  0  0
    1.0294    0.2998    0.5929 C   0  0  0  0  0  0  0  0  0  0  0  0
    2.3607    0.8144   -0.3148 C   0  0  0  0  0  0  0  0  0  0  0  0
    3.6039    0.9497    0.6488 O   0  0  0  0  0  0  0  0  0  0  0  0
   -0.4426    2.4139   -0.0418 O   0  0  0  0  0  0  0  0  0  0  0  0
   -0.4626    0.3600   -1.7445 C   0  0  0  0  0  0  0  0  0  0  0  0
   -3.6039    1.8308    1.7445 O   0  0  0  0  0  0  0  0  0  0  0  0
   -3.5526    1.5773   -0.8247 O   0  5  0  0  0  0  0  0  0  0  0  0
   -2.1573   -1.3406    0.2692 C   0  0  0  0  0  0  0  0  0  0  0  0
   -0.5350   -2.4139   -0.2474 Cl  0  0  0  0  0  0  0  0  0  0  0  0
  1  2  1  0        0
  2  3  1  0        0
  3  4  1  0        0
  4  5  1  0        0
  5  6  1  0        0
  3  7  1  0        0
  3  8  1  0        0
  1  9  2  0        0
  1 10  1  0        0
  2 11  1  0        0
 11 12  1  0        0
M  CHG  1  10  -1
M  END
$$$$
