15.sdf
  ChemDraw03242316183D

 12 11  0  0  1  0  0  0  0  0999 V2000
   -2.8479    1.0231    0.6582 C   0  0  0  0  0  0  0  0  0  0  0  0
   -1.4532    0.2439    0.9085 C   0  0  0  0  0  0  0  0  0  0  0  0
   -0.2303    1.0171    0.1283 C   0  0  0  0  0  0  0  0  0  0  0  0
    1.1845    0.3376    0.6185 C   0  0  0  0  0  0  0  0  0  0  0  0
    2.4520    1.3057    0.2199 C   0  0  0  0  0  0  0  0  0  0  0  0
    3.7651    0.5284    0.3979 O   0  0  0  0  0  0  0  0  0  0  0  0
   -0.2654    2.5096    0.4898 O   0  0  0  0  0  0  0  0  0  0  0  0
   -0.3959    0.8323   -1.4977 C   0  0  0  0  0  0  0  0  0  0  0  0
   -3.2219    2.0673    1.4977 O   0  0  0  0  0  0  0  0  0  0  0  0
   -3.7651    0.5883   -0.4576 O   0  5  0  0  0  0  0  0  0  0  0  0
   -1.5725   -1.2572    0.4016 C   0  0  0  0  0  0  0  0  0  0  0  0
   -1.6815   -2.5096    0.0372 C   0  0  0  0  0  0  0  0  0  0  0  0
  1  2  1  0        0
  2  3  1  0        0
  3  4  1  0        0
  4  5  1  0        0
  5  6  1  0        0
  3  7  1  0        0
  3  8  1  0        0
  1  9  2  0        0
  1 10  1  0        0
  2 11  1  0        0
 11 12  3  0        0
M  CHG  1  10  -1
M  END
$$$$
