33.sdf
  ChemDraw03242316243D

 19 19  0  0  1  0  0  0  0  0999 V2000
   -2.6483    3.0243    0.6862 C   0  0  0  0  0  0  0  0  0  0  0  0
   -1.1604    2.5574    0.7065 C   0  0  0  0  0  0  0  0  0  0  0  0
   -0.2564    3.5949   -0.0828 C   0  0  0  0  0  0  0  0  0  0  0  0
    1.2525    3.2460    0.2572 C   0  0  0  0  0  0  0  0  0  0  0  0
    2.2399    4.2158   -0.5179 C   0  0  0  0  0  0  0  0  0  0  0  0
    3.5412    4.2795    0.1865 O   0  0  0  0  0  0  0  0  0  0  0  0
   -0.5624    4.9735    0.3640 O   0  0  0  0  0  0  0  0  0  0  0  0
   -0.4944    3.4932   -1.6474 C   0  0  0  0  0  0  0  0  0  0  0  0
   -3.1023    3.8424    1.6474 O   0  0  0  0  0  0  0  0  0  0  0  0
   -3.5412    2.5409   -0.3561 O   0  5  0  0  0  0  0  0  0  0  0  0
   -1.0679    1.1260    0.0915 C   0  0  0  0  0  0  0  0  0  0  0  0
   -0.3889    0.1252    0.7820 C   0  0  0  0  0  0  0  0  0  0  0  0
   -0.5191   -1.3406    0.3600 C   0  0  0  0  0  0  0  0  0  0  0  0
   -1.7175   -1.8036   -0.2987 C   0  0  0  0  0  0  0  0  0  0  0  0
   -1.8848   -3.2092   -0.5835 C   0  0  0  0  0  0  0  0  0  0  0  0
   -0.8440   -4.1502   -0.2437 C   0  0  0  0  0  0  0  0  0  0  0  0
    0.3915   -3.6778    0.3345 C   0  0  0  0  0  0  0  0  0  0  0  0
    0.5409   -2.2769    0.6512 C   0  0  0  0  0  0  0  0  0  0  0  0
    1.8817   -4.9735    0.7123 Br  0  0  0  0  0  0  0  0  0  0  0  0
  1  2  1  0        0
  2  3  1  0        0
  3  4  1  0        0
  4  5  1  0        0
  5  6  1  0        0
  3  7  1  0        0
  3  8  1  0        0
  1  9  2  0        0
  1 10  1  0        0
  2 11  1  0        0
 11 12  2  0        0
 12 13  1  0        0
 13 14  2  0        0
 14 15  1  0        0
 15 16  2  0        0
 16 17  1  0        0
 17 18  2  0        0
 18 13  1  0        0
 17 19  1  0        0
M  CHG  1  10  -1
M  END
$$$$
