34.sdf
  ChemDraw03242316243D

 18 18  0  0  1  0  0  0  0  0999 V2000
   -2.7887    2.7839    0.7108 C   0  0  0  0  0  0  0  0  0  0  0  0
   -1.2406    2.2719    0.7603 C   0  0  0  0  0  0  0  0  0  0  0  0
   -0.2571    3.3272   -0.0586 C   0  0  0  0  0  0  0  0  0  0  0  0
    1.3068    2.9400    0.3350 C   0  0  0  0  0  0  0  0  0  0  0  0
    2.3744    3.9248   -0.4684 C   0  0  0  0  0  0  0  0  0  0  0  0
    3.7235    3.9622    0.2940 O   0  0  0  0  0  0  0  0  0  0  0  0
   -0.5603    4.7786    0.3936 O   0  0  0  0  0  0  0  0  0  0  0  0
   -0.4795    3.2076   -1.6982 C   0  0  0  0  0  0  0  0  0  0  0  0
   -3.2660    3.6609    1.6982 O   0  0  0  0  0  0  0  0  0  0  0  0
   -3.7235    2.2885   -0.3837 O   0  5  0  0  0  0  0  0  0  0  0  0
   -1.1553    0.7688    0.1273 C   0  0  0  0  0  0  0  0  0  0  0  0
   -0.4790   -0.2845    0.8755 C   0  0  0  0  0  0  0  0  0  0  0  0
   -0.6177   -1.8236    0.4488 C   0  0  0  0  0  0  0  0  0  0  0  0
   -1.8206   -2.2875   -0.3413 C   0  0  0  0  0  0  0  0  0  0  0  0
   -2.0482   -3.7662   -0.5561 C   0  0  0  0  0  0  0  0  0  0  0  0
   -1.0498   -4.7786   -0.0422 C   0  0  0  0  0  0  0  0  0  0  0  0
    0.2010   -4.3046    0.6633 C   0  0  0  0  0  0  0  0  0  0  0  0
    0.4224   -2.8267    0.8953 C   0  0  0  0  0  0  0  0  0  0  0  0
  1  2  1  0        0
  2  3  1  0        0
  3  4  1  0        0
  4  5  1  0        0
  5  6  1  0        0
  3  7  1  0        0
  3  8  1  0        0
  1  9  2  0        0
  1 10  1  0        0
  2 11  1  0        0
 11 12  2  0        0
 12 13  1  0        0
 13 14  2  0        0
 14 15  1  0        0
 15 16  2  0        0
 16 17  1  0        0
 17 18  2  0        0
 18 13  1  0        0
M  CHG  1  10  -1
M  END
$$$$
