4.sdf
  ChemDraw03242316133D

 14 13  0  0  1  0  0  0  0  0999 V2000
   -2.8910    2.2865    0.6028 C   0  0  0  0  0  0  0  0  0  0  0  0
   -1.5323    1.4184    0.7159 C   0  0  0  0  0  0  0  0  0  0  0  0
   -0.3501    2.1905   -0.1234 C   0  0  0  0  0  0  0  0  0  0  0  0
    1.1107    1.7609    0.4920 C   0  0  0  0  0  0  0  0  0  0  0  0
    2.2759    2.6791   -0.2135 C   0  0  0  0  0  0  0  0  0  0  0  0
    3.5652    2.6285    0.6185 O   0  0  0  0  0  0  0  0  0  0  0  0
   -0.5463    3.6986    0.0773 O   0  0  0  0  0  0  0  0  0  0  0  0
   -0.3926    1.8624   -1.7313 C   0  0  0  0  0  0  0  0  0  0  0  0
   -3.4537    2.8705    1.7313 O   0  0  0  0  0  0  0  0  0  0  0  0
   -3.5652    2.4374   -0.7365 O   0  5  0  0  0  0  0  0  0  0  0  0
   -1.8456   -0.0990    0.1647 C   0  0  0  0  0  0  0  0  0  0  0  0
   -0.5446   -1.1042    0.1965 C   0  0  0  0  0  0  0  0  0  0  0  0
   -1.0659   -2.6517    0.0065 C   0  0  0  0  0  0  0  0  0  0  0  0
    0.1961   -3.6986    0.1008 C   0  0  0  0  0  0  0  0  0  0  0  0
  1  2  1  0        0
  2  3  1  0        0
  3  4  1  0        0
  4  5  1  0        0
  5  6  1  0        0
  3  7  1  0        0
  3  8  1  0        0
  1  9  2  0        0
  1 10  1  0        0
  2 11  1  0        0
 11 12  1  0        0
 12 13  1  0        0
 13 14  1  0        0
M  CHG  1  10  -1
M  END
$$$$
