40.sdf
  ChemDraw03242316303D

 20 20  0  0  1  0  0  0  0  0999 V2000
   -2.8034    3.5491    0.7483 C   0  0  0  0  0  0  0  0  0  0  0  0
   -1.2453    3.0375    0.8136 C   0  0  0  0  0  0  0  0  0  0  0  0
   -0.2635    4.0651   -0.0607 C   0  0  0  0  0  0  0  0  0  0  0  0
    1.3126    3.6842    0.3332 C   0  0  0  0  0  0  0  0  0  0  0  0
    2.3782    4.6423   -0.5230 C   0  0  0  0  0  0  0  0  0  0  0  0
    3.7443    4.7066    0.2284 O   0  0  0  0  0  0  0  0  0  0  0  0
   -0.5668    5.5410    0.3403 O   0  0  0  0  0  0  0  0  0  0  0  0
   -0.5008    3.8775   -1.7016 C   0  0  0  0  0  0  0  0  0  0  0  0
   -3.2808    4.4751    1.7016 O   0  0  0  0  0  0  0  0  0  0  0  0
   -3.7443    2.9990   -0.3271 O   0  5  0  0  0  0  0  0  0  0  0  0
   -1.1468    1.4987    0.2503 C   0  0  0  0  0  0  0  0  0  0  0  0
   -0.4853    0.4735    1.0617 C   0  0  0  0  0  0  0  0  0  0  0  0
   -0.5440   -1.0777    0.6296 C   0  0  0  0  0  0  0  0  0  0  0  0
   -1.7609   -1.6265   -0.0993 C   0  0  0  0  0  0  0  0  0  0  0  0
   -1.8313   -3.1044   -0.4520 C   0  0  0  0  0  0  0  0  0  0  0  0
   -0.6803   -4.0309   -0.0935 C   0  0  0  0  0  0  0  0  0  0  0  0
    0.5754   -3.4642    0.5488 C   0  0  0  0  0  0  0  0  0  0  0  0
    0.6166   -2.0019    0.9625 C   0  0  0  0  0  0  0  0  0  0  0  0
   -0.7762   -5.5410   -0.3704 F   0  0  0  0  0  0  0  0  0  0  0  0
    1.8859   -4.4229    0.7647 C   0  0  0  0  0  0  0  0  0  0  0  0
  1  2  1  0        0
  2  3  1  0        0
  3  4  1  0        0
  4  5  1  0        0
  5  6  1  0        0
  3  7  1  0        0
  3  8  1  0        0
  1  9  2  0        0
  1 10  1  0        0
  2 11  1  0        0
 11 12  2  0        0
 12 13  1  0        0
 13 14  2  0        0
 14 15  1  0        0
 15 16  2  0        0
 16 17  1  0        0
 17 18  2  0        0
 18 13  1  0        0
 16 19  1  0        0
 17 20  1  0        0
M  CHG  1  10  -1
M  END
$$$$
