9.sdf
  ChemDraw03242316163D

 14 13  0  0  1  0  0  0  0  0999 V2000
   -2.8923    1.7802    0.5635 C   0  0  0  0  0  0  0  0  0  0  0  0
   -1.5219    0.9133    0.8345 C   0  0  0  0  0  0  0  0  0  0  0  0
   -0.2959    1.7275    0.0424 C   0  0  0  0  0  0  0  0  0  0  0  0
    1.1831    1.2230    0.6315 C   0  0  0  0  0  0  0  0  0  0  0  0
    2.3072    2.4201    0.3263 C   0  0  0  0  0  0  0  0  0  0  0  0
    3.7505    1.8456    0.4686 O   0  0  0  0  0  0  0  0  0  0  0  0
   -0.4887    3.2478    0.3369 O   0  0  0  0  0  0  0  0  0  0  0  0
   -0.3340    1.4975   -1.6120 C   0  0  0  0  0  0  0  0  0  0  0  0
   -3.7505    2.1822    1.6120 O   0  0  0  0  0  0  0  0  0  0  0  0
   -3.2025    2.1809   -0.8822 O   0  5  0  0  0  0  0  0  0  0  0  0
   -1.8193   -0.6630    0.3602 C   0  0  0  0  0  0  0  0  0  0  0  0
   -0.5381   -1.7335    0.3038 C   0  0  0  0  0  0  0  0  0  0  0  0
   -1.1505   -3.2478    0.6514 C   0  0  0  0  0  0  0  0  0  0  0  0
    0.0588   -1.7654   -1.2551 C   0  0  0  0  0  0  0  0  0  0  0  0
  1  2  1  0        0
  2  3  1  0        0
  3  4  1  0        0
  4  5  1  0        0
  5  6  1  0        0
  3  7  1  0        0
  3  8  1  0        0
  1  9  2  0        0
  1 10  1  0        0
  2 11  1  0        0
 11 12  1  0        0
 12 13  1  0        0
 12 14  1  0        0
M  CHG  1  10  -1
M  END
$$$$
