12.sdf
  ChemDraw03242316173D

 12 11  0  0  1  0  0  0  0  0999 V2000
   -2.9783    0.7759    0.6947 C   0  0  0  0  0  0  0  0  0  0  0  0
   -1.5245    0.0603    1.1058 C   0  0  0  0  0  0  0  0  0  0  0  0
   -0.2443    0.7681    0.2407 C   0  0  0  0  0  0  0  0  0  0  0  0
    1.1921   -0.0019    0.7190 C   0  0  0  0  0  0  0  0  0  0  0  0
    2.5192    0.8714    0.1194 C   0  0  0  0  0  0  0  0  0  0  0  0
    3.8633    0.1775    0.5984 O   0  0  0  0  0  0  0  0  0  0  0  0
   -0.1818    2.3098    0.6172 O   0  0  0  0  0  0  0  0  0  0  0  0
   -0.4330    0.6264   -1.4430 C   0  0  0  0  0  0  0  0  0  0  0  0
   -3.4222    1.9216    1.4430 O   0  0  0  0  0  0  0  0  0  0  0  0
   -3.8633    0.1844   -0.4450 O   0  5  0  0  0  0  0  0  0  0  0  0
   -1.5630   -1.6058    0.9572 C   0  0  0  0  0  0  0  0  0  0  0  0
   -1.5767   -2.3098   -0.3583 C   0  0  0  0  0  0  0  0  0  0  0  0
  1  2  1  0        0
  2  3  1  0        0
  3  4  1  0        0
  4  5  1  0        0
  5  6  1  0        0
  3  7  1  0        0
  3  8  1  0        0
  1  9  2  0        0
  1 10  1  0        0
  2 11  1  0        0
 11 12  2  0        0
M  CHG  1  10  -1
M  END
$$$$
