3.sdf
  ChemDraw03242316123D

 13 12  0  0  1  0  0  0  0  0999 V2000
   -2.9189    1.8785    0.6140 C   0  0  0  0  0  0  0  0  0  0  0  0
   -1.5749    0.9307    0.7396 C   0  0  0  0  0  0  0  0  0  0  0  0
   -0.3471    1.6732   -0.1301 C   0  0  0  0  0  0  0  0  0  0  0  0
    1.1127    1.2207    0.5593 C   0  0  0  0  0  0  0  0  0  0  0  0
    2.3734    1.9394   -0.2812 C   0  0  0  0  0  0  0  0  0  0  0  0
    3.6078    2.0952    0.6690 O   0  0  0  0  0  0  0  0  0  0  0  0
   -0.5110    3.2235    0.0114 O   0  0  0  0  0  0  0  0  0  0  0  0
   -0.3687    1.2747   -1.7592 C   0  0  0  0  0  0  0  0  0  0  0  0
   -3.4596    2.5157    1.7592 O   0  0  0  0  0  0  0  0  0  0  0  0
   -3.6078    2.0833   -0.7458 O   0  5  0  0  0  0  0  0  0  0  0  0
   -1.9994   -0.5892    0.1679 C   0  0  0  0  0  0  0  0  0  0  0  0
   -0.7244   -1.6759    0.1039 C   0  0  0  0  0  0  0  0  0  0  0  0
   -1.3547   -3.2235   -0.0265 C   0  0  0  0  0  0  0  0  0  0  0  0
  1  2  1  0        0
  2  3  1  0        0
  3  4  1  0        0
  4  5  1  0        0
  5  6  1  0        0
  3  7  1  0        0
  3  8  1  0        0
  1  9  2  0        0
  1 10  1  0        0
  2 11  1  0        0
 11 12  1  0        0
 12 13  1  0        0
M  CHG  1  10  -1
M  END
$$$$
