41.sdf
  ChemDraw03242316253D

 19 19  0  0  1  0  0  0  0  0999 V2000
   -2.9541    3.2258    0.8104 C   0  0  0  0  0  0  0  0  0  0  0  0
   -1.4638    2.4336    0.7369 C   0  0  0  0  0  0  0  0  0  0  0  0
   -0.3755    3.2224   -0.3309 C   0  0  0  0  0  0  0  0  0  0  0  0
    1.1881    2.5752   -0.0441 C   0  0  0  0  0  0  0  0  0  0  0  0
    2.3503    3.3088   -1.0708 C   0  0  0  0  0  0  0  0  0  0  0  0
    3.8002    3.1585   -0.4031 O   0  0  0  0  0  0  0  0  0  0  0  0
   -0.3831    4.7980   -0.0389 O   0  0  0  0  0  0  0  0  0  0  0  0
   -0.7971    2.9602   -1.9751 C   0  0  0  0  0  0  0  0  0  0  0  0
   -3.8002    3.0307    1.9751 O   0  0  0  0  0  0  0  0  0  0  0  0
   -3.3977    4.2191   -0.3274 O   0  5  0  0  0  0  0  0  0  0  0  0
   -1.5674    0.8363    0.1997 C   0  0  0  0  0  0  0  0  0  0  0  0
   -0.8708   -0.1990    1.0411 C   0  0  0  0  0  0  0  0  0  0  0  0
   -0.6316   -1.7491    0.5106 C   0  0  0  0  0  0  0  0  0  0  0  0
   -1.3163   -2.2816   -0.7887 C   0  0  0  0  0  0  0  0  0  0  0  0
   -1.3189   -3.8185   -1.0694 C   0  0  0  0  0  0  0  0  0  0  0  0
   -0.5580   -4.7980   -0.1180 C   0  0  0  0  0  0  0  0  0  0  0  0
    0.3250   -4.2198    1.0349 C   0  0  0  0  0  0  0  0  0  0  0  0
    0.2629   -2.6957    1.3721 C   0  0  0  0  0  0  0  0  0  0  0  0
   -1.9916   -1.2765   -1.8062 F   0  0  0  0  0  0  0  0  0  0  0  0
  1  2  1  0        0
  2  3  1  0        0
  3  4  1  0        0
  4  5  1  0        0
  5  6  1  0        0
  3  7  1  0        0
  3  8  1  0        0
  1  9  2  0        0
  1 10  1  0        0
  2 11  1  0        0
 11 12  2  0        0
 12 13  1  0        0
 13 14  2  0        0
 14 15  1  0        0
 15 16  2  0        0
 16 17  1  0        0
 17 18  2  0        0
 18 13  1  0        0
 14 19  1  0        0
M  CHG  1  10  -1
M  END
$$$$
