7.sdf
  ChemDraw03242316153D

 12 11  0  0  1  0  0  0  0  0999 V2000
   -2.8060    0.5308    0.0272 C   0  0  0  0  0  0  0  0  0  0  0  0
   -1.4410   -0.4036    0.1253 C   0  0  0  0  0  0  0  0  0  0  0  0
   -0.0927    0.5472   -0.2180 C   0  0  0  0  0  0  0  0  0  0  0  0
    1.2794   -0.4257   -0.3215 C   0  0  0  0  0  0  0  0  0  0  0  0
    2.6410    0.5356   -0.5697 C   0  0  0  0  0  0  0  0  0  0  0  0
    3.9194   -0.3794   -0.6451 O   0  0  0  0  0  0  0  0  0  0  0  0
    0.1000    1.6077    0.9289 O   0  0  0  0  0  0  0  0  0  0  0  0
   -0.3287    1.3454   -1.6831 C   0  0  0  0  0  0  0  0  0  0  0  0
   -2.9529    1.6688    0.8730 O   0  0  0  0  0  0  0  0  0  0  0  0
   -3.9194    0.1683   -0.9825 O   0  5  0  0  0  0  0  0  0  0  0  0
   -1.5472   -1.6688   -0.9826 C   0  0  0  0  0  0  0  0  0  0  0  0
   -1.3080   -1.0320    1.6831 C   0  0  0  0  0  0  0  0  0  0  0  0
  1  2  1  0        0
  2  3  1  0        0
  3  4  1  0        0
  4  5  1  0        0
  5  6  1  0        0
  3  7  1  0        0
  3  8  1  0        0
  1  9  2  0        0
  1 10  1  0        0
  2 11  1  0        0
  2 12  1  0        0
M  CHG  1  10  -1
M  END
$$$$
